/*--------------------------------*- C++ -*----------------------------------*\
| =========                 |                                                 |
| \\      /  F ield         | OpenFOAM: The Open Source CFD Toolbox           |
|  \\    /   O peration     | Version:  v2012                                 |
|   \\  /    A nd           | Website:  www.openfoam.com                      |
|    \\/     M anipulation  |                                                 |
\*---------------------------------------------------------------------------*/
FoamFile
{
    version     2.0;
    format      ascii;
    class       volScalarField;
    object      nut;
}
// * * * * * * * * * * * * * * * * * * * * * * * * * * * * * * * * * * * * * //

dimensions      [0 2 -1 0 0 0 0];

// nut ≈ k/omega using the inlet estimates above
internalField   uniform 6.03e-5;

boundaryField
{
    P.Inlet
    {
        type        calculated;
        value       uniform 6.03e-5;
    }

    P.Outlet
    {
        type        zeroGradient;
    }

    Farfield
    {
        type        zeroGradient;
    }

    Wall
    {
        type            nutkWallFunction;
        value           uniform 0;
    }

    Symmetry
    {
        type        symmetryPlane;
    }

    patch0
    {
        type        empty;
    }

    patch3
    {
        type        empty;
    }
}

// ************************************************************************* //
